Version 4
SHEET 1 3652 680
WIRE 3008 -1168 3008 -1248
WIRE 2976 -1136 240 -1136
WIRE 3344 -1136 3344 -1200
WIRE 3264 -1104 3232 -1104
WIRE 3568 -1104 3440 -1104
WIRE 3184 -1088 3136 -1088
WIRE 3184 -1056 3184 -1088
WIRE 3264 -1056 3184 -1056
WIRE 2976 -1040 2912 -1040
WIRE 3264 -1008 3232 -1008
WIRE 3568 -1008 3440 -1008
WIRE -832 -800 -832 -832
WIRE 64 -768 -112 -768
WIRE 240 -768 240 -1136
WIRE 240 -768 176 -768
WIRE 352 -768 240 -768
WIRE 544 -768 464 -768
WIRE 656 -768 544 -768
WIRE 864 -768 768 -768
WIRE 992 -768 864 -768
WIRE 1136 -768 1104 -768
WIRE 1200 -768 1136 -768
WIRE 1408 -768 1312 -768
WIRE 1488 -768 1408 -768
WIRE 1696 -768 1600 -768
WIRE 1776 -768 1696 -768
WIRE 1984 -768 1888 -768
WIRE 2080 -768 1984 -768
WIRE 2288 -768 2192 -768
WIRE 2400 -768 2288 -768
WIRE 2608 -768 2512 -768
WIRE 2704 -768 2608 -768
WIRE 2912 -768 2912 -1040
WIRE 2912 -768 2816 -768
WIRE 544 -704 544 -768
WIRE -912 -688 -912 -720
WIRE 864 -688 864 -768
WIRE 1136 -688 1136 -768
WIRE 1408 -688 1408 -768
WIRE 1696 -688 1696 -768
WIRE 1984 -688 1984 -768
WIRE 2288 -688 2288 -768
WIRE 2608 -688 2608 -768
WIRE 2912 -688 2912 -768
WIRE -832 -672 -832 -720
WIRE -992 -576 -992 -608
WIRE -912 -560 -912 -608
WIRE 544 -560 544 -640
WIRE 864 -560 864 -624
WIRE 1136 -560 1136 -624
WIRE 1408 -560 1408 -624
WIRE 1696 -560 1696 -624
WIRE 1984 -560 1984 -624
WIRE 2288 -560 2288 -624
WIRE 2608 -560 2608 -624
WIRE 2912 -560 2912 -624
WIRE -1072 -480 -1072 -512
WIRE -992 -448 -992 -496
WIRE -1072 -336 -1072 -400
FLAG -992 -448 0
FLAG -992 -608 E
IOPIN -992 -608 BiDir
FLAG -1072 -336 0
FLAG -1072 -512 Vdd
FLAG 3008 -1248 Vdd
FLAG 3344 -1200 Vdd
FLAG -912 -560 0
FLAG -912 -720 R
IOPIN -912 -720 BiDir
FLAG -832 -672 0
FLAG -832 -832 S
IOPIN -832 -832 BiDir
FLAG 3232 -1104 R
FLAG 3232 -1008 S
FLAG 112 -832 Vdd
FLAG 400 -832 Vdd
FLAG 704 -832 Vdd
FLAG 1040 -832 Vdd
FLAG -112 -768 E
FLAG 1248 -832 Vdd
FLAG 864 -560 0
FLAG 544 -560 0
FLAG 1136 -560 0
FLAG 1408 -560 0
FLAG 1536 -832 Vdd
FLAG 1696 -560 0
FLAG 1824 -832 Vdd
FLAG 1984 -560 0
FLAG 2128 -832 Vdd
FLAG 2288 -560 0
FLAG 2448 -832 Vdd
FLAG 2608 -560 0
FLAG 2752 -832 Vdd
FLAG 2912 -560 0
FLAG 3568 -1104 qout
FLAG 3568 -1008 q_out
SYMBOL FLIPFLOP21set 3440 -1040 R0
SYMATTR InstName X1
SYMBOL voltage -992 -592 R0
WINDOW 123 0 0 Left 0
WINDOW 39 0 0 Left 0
SYMATTR InstName V1
SYMATTR Value PULSE(5 0 0 60p 60p 1m 2m)
SYMBOL NAND2P 3104 -1088 M0
SYMATTR InstName X2
SYMBOL voltage -1072 -496 R0
WINDOW 123 0 0 Left 0
WINDOW 39 0 0 Left 0
SYMATTR InstName V2
SYMATTR Value 5
SYMBOL voltage -912 -704 R0
WINDOW 123 0 0 Left 0
WINDOW 39 0 0 Left 0
SYMATTR InstName V3
SYMATTR Value PULSE(5 0 0 60p 60p 2m 4m)
SYMBOL voltage -832 -816 R0
WINDOW 123 0 0 Left 0
WINDOW 39 0 0 Left 0
SYMATTR InstName V4
SYMATTR Value PULSE(5 0 0 60p 60p 4m 8m)
SYMBOL INVERTER 80 -752 R0
SYMATTR InstName X4
SYMBOL INVERTER 368 -752 R0
SYMATTR InstName X5
SYMBOL INVERTER 672 -752 R0
SYMATTR InstName X6
SYMBOL INVERTER 1008 -752 R0
SYMATTR InstName X7
SYMBOL INVERTER 1216 -752 R0
SYMATTR InstName X8
SYMBOL cap 528 -704 R0
SYMATTR InstName C1
SYMATTR Value 0.1p
SYMBOL cap 848 -688 R0
SYMATTR InstName C2
SYMATTR Value 0.1p
SYMBOL cap 1120 -688 R0
SYMATTR InstName C3
SYMATTR Value 0.1p
SYMBOL cap 1392 -688 R0
SYMATTR InstName C4
SYMATTR Value 0.1p
SYMBOL INVERTER 1504 -752 R0
SYMATTR InstName X9
SYMBOL cap 1680 -688 R0
SYMATTR InstName C5
SYMATTR Value 0.1p
SYMBOL INVERTER 1792 -752 R0
SYMATTR InstName X10
SYMBOL cap 1968 -688 R0
SYMATTR InstName C6
SYMATTR Value 0.1p
SYMBOL INVERTER 2096 -752 R0
SYMATTR InstName X11
SYMBOL cap 2272 -688 R0
SYMATTR InstName C7
SYMATTR Value 0.1p
SYMBOL INVERTER 2416 -752 R0
SYMATTR InstName X12
SYMBOL cap 2592 -688 R0
SYMATTR InstName C8
SYMATTR Value 0.1p
SYMBOL INVERTER 2720 -752 R0
SYMATTR InstName X13
SYMBOL cap 2896 -688 R0
SYMATTR InstName C9
SYMATTR Value 0.1p
TEXT -136 40 Left 2 !.lib C5_models.txt
TEXT -1144 60 Left 2 !.tran 0 10ms 1ms 0.001ms
