Version 4
SHEET 1 4312 680
WIRE 2368 -1632 2320 -1632
WIRE 2688 -1632 2368 -1632
WIRE 3104 -1632 3104 -1792
WIRE 3200 -1632 3104 -1632
WIRE 2912 -1584 2848 -1584
WIRE 3200 -1584 3104 -1584
WIRE 3440 -1584 3360 -1584
WIRE 3648 -1584 3440 -1584
WIRE 2432 -1536 2320 -1536
WIRE 2624 -1536 2544 -1536
WIRE 2640 -1536 2624 -1536
WIRE 2688 -1536 2640 -1536
WIRE 3136 -1520 3200 -1536
WIRE 3280 -1424 3136 -1520
WIRE 2368 -1408 2368 -1632
WIRE 3136 -1408 3440 -1584
WIRE 2640 -1360 2640 -1536
WIRE 2688 -1360 2640 -1360
WIRE 3200 -1360 3136 -1408
WIRE 2912 -1312 2848 -1312
WIRE 3200 -1312 3104 -1312
WIRE 3424 -1312 3280 -1424
WIRE 3424 -1312 3360 -1312
WIRE 3648 -1312 3424 -1312
WIRE 2368 -1264 2368 -1296
WIRE 2592 -1264 2368 -1264
WIRE 2688 -1264 2592 -1264
WIRE 3200 -1264 3104 -1264
WIRE 3104 -1056 3104 -1264
WIRE 4096 -480 4096 -560
WIRE 3552 -464 3552 -560
WIRE 3552 -304 3552 -384
WIRE 3456 -288 3456 -384
WIRE 4096 -288 4096 -400
WIRE 3344 -128 3344 -224
WIRE 3456 -128 3456 -208
WIRE 3248 0 3248 -96
WIRE 3344 32 3344 -48
WIRE 3248 160 3248 80
FLAG 3552 -304 0
FLAG 3552 -560 CK
FLAG 2320 -1536 CK
FLAG 4096 -288 0
FLAG 4096 -560 Vdd
FLAG 2480 -1488 Vdd
FLAG 2320 -1632 D
FLAG 2432 -1360 Vdd
FLAG 2720 -1392 Vdd
FLAG 2720 -1664 Vdd
FLAG 3456 -128 0
FLAG 3456 -384 D
FLAG 3104 -1792 PR
FLAG 3104 -1056 CL
FLAG 3648 -1584 Q
IOPIN 3648 -1584 Out
FLAG 3648 -1312 Q_
IOPIN 3648 -1312 Out
FLAG 3232 -1664 Vdd
FLAG 3232 -1392 Vdd
FLAG 3344 32 0
FLAG 3344 -224 CL
FLAG 3248 160 0
FLAG 3248 -96 PR
FLAG 2912 -1584 A
FLAG 2912 -1312 B
FLAG 3104 -1584 A
FLAG 3104 -1312 B
FLAG 2624 -1536 T
FLAG 2592 -1264 D_
SYMBOL voltage 3552 -480 R0
WINDOW 123 0 0 Left 0
WINDOW 39 0 0 Left 0
SYMATTR InstName V1
SYMATTR Value PULSE(0 5 60p 60p 60p 10n 20n 0)
SYMBOL voltage 4096 -496 R0
WINDOW 123 0 0 Left 0
WINDOW 39 0 0 Left 0
SYMATTR InstName V2
SYMATTR Value 5
SYMBOL AULA0510-GERADORBORDAPULSO 2528 -1520 R0
SYMATTR InstName X1
SYMBOL INVERTER 2352 -1392 R90
SYMATTR InstName X4
SYMBOL NAND2P 2816 -1584 M0
SYMATTR InstName X5
SYMBOL NAND2P 2816 -1312 M0
SYMATTR InstName X6
SYMBOL voltage 3456 -304 R0
WINDOW 123 0 0 Left 0
WINDOW 39 0 0 Left 0
SYMATTR InstName V3
SYMATTR Value PULSE(0 5 60p 60p 60p 20n 40n 0)
SYMBOL NAND3P 3328 -1584 M0
SYMATTR InstName X2
SYMBOL NAND3P 3328 -1312 M0
SYMATTR InstName X3
SYMBOL voltage 3344 -144 R0
WINDOW 123 0 0 Left 0
WINDOW 39 0 0 Left 0
SYMATTR InstName V4
SYMATTR Value 5
SYMBOL voltage 3248 -16 R0
WINDOW 123 0 0 Left 0
WINDOW 39 0 0 Left 0
SYMATTR InstName V5
SYMATTR Value 5
TEXT 2888 -424 Left 2 !.lib C5_models.txt
TEXT 2784 -464 Left 2 !.tran 0 100n 0 0.001ms
