Version 4
SHEET 1 880 1284
WIRE -4672 -912 -5536 -912
WIRE -5440 -736 -5440 -800
WIRE -5536 -704 -5536 -912
WIRE -5472 -704 -5536 -704
WIRE -4912 -672 -4912 -768
WIRE -5472 -656 -5712 -656
WIRE -5200 -656 -5312 -656
WIRE -4320 -656 -4320 -848
WIRE -4160 -656 -4160 -848
WIRE -4000 -656 -4000 -848
WIRE -3840 -656 -3840 -848
WIRE -3696 -656 -3696 -768
WIRE -5056 -640 -5056 -784
WIRE -4944 -640 -5056 -640
WIRE -5472 -608 -5536 -608
WIRE -5200 -592 -5200 -656
WIRE -4944 -592 -5200 -592
WIRE -4704 -592 -4784 -592
WIRE -4640 -592 -4704 -592
WIRE -4576 -592 -4640 -592
WIRE -4944 -544 -4992 -544
WIRE -4320 -512 -4320 -576
WIRE -4160 -512 -4160 -576
WIRE -4000 -512 -4000 -576
WIRE -3840 -512 -3840 -576
WIRE -3696 -512 -3696 -576
WIRE -4704 -432 -4704 -592
WIRE -4992 -384 -4992 -544
WIRE -5840 -352 -5840 -448
WIRE -5536 -352 -5536 -608
WIRE -5536 -352 -5840 -352
WIRE -4992 -288 -4704 -432
WIRE -4704 -288 -4992 -384
WIRE -5840 -256 -5840 -352
WIRE -4896 -160 -4896 -224
WIRE -4992 -128 -4992 -288
WIRE -4928 -128 -4992 -128
WIRE -5840 -112 -5840 -176
WIRE -5456 -96 -5456 -160
WIRE -4928 -80 -5200 -80
WIRE -4704 -80 -4704 -288
WIRE -4704 -80 -4768 -80
WIRE -4672 -80 -4672 -912
WIRE -4672 -80 -4704 -80
WIRE -4560 -80 -4672 -80
WIRE -5536 -64 -5536 -352
WIRE -5488 -64 -5536 -64
WIRE -4928 -32 -5056 -32
WIRE -5488 -16 -5712 -16
WIRE -5200 -16 -5200 -80
WIRE -5200 -16 -5328 -16
WIRE -5488 32 -5536 32
WIRE -5056 64 -5056 -32
WIRE -5536 128 -5536 32
WIRE -4640 128 -4640 -592
WIRE -4640 128 -5536 128
FLAG -3840 -512 0
FLAG -3840 -848 K
FLAG -4000 -512 0
FLAG -4000 -848 J
FLAG -4560 -80 Qb
FLAG -3696 -512 0
FLAG -4576 -592 Q
FLAG -3696 -768 Vdd
FLAG -4896 -224 Vdd
FLAG -4912 -768 Vdd
FLAG -5440 -800 Vdd
FLAG -5456 -160 Vdd
FLAG -5712 -656 J
FLAG -5712 -16 K
FLAG -5840 -112 0
FLAG -5840 -448 CLOCK
FLAG -5056 -784 PR
FLAG -5056 64 CL
FLAG -4160 -512 0
FLAG -4160 -848 CL
FLAG -4320 -512 0
FLAG -4320 -848 PR
SYMBOL voltage -3840 -672 R0
WINDOW 123 0 0 Left 2
WINDOW 39 0 0 Left 2
WINDOW 3 -66 -145 VRight 2
SYMATTR Value PULSE(5 0 0 60ps 60ps 100ns 200ns)
SYMATTR InstName V4
SYMBOL voltage -4000 -672 R0
WINDOW 123 0 0 Left 2
WINDOW 39 0 0 Left 2
WINDOW 3 -66 -145 VRight 2
SYMATTR Value PULSE(5 0 0 60ps 60ps 200ns 400ns)
SYMATTR InstName V1
SYMBOL voltage -3696 -672 R0
WINDOW 123 0 0 Left 2
WINDOW 39 0 0 Left 2
WINDOW 3 -58 40 VRight 2
SYMATTR Value 5V
SYMATTR InstName Vdd
SYMBOL NAND3P -5344 -656 M0
SYMATTR InstName X5
SYMBOL NAND3P -5360 -16 M0
SYMATTR InstName X6
SYMBOL voltage -5840 -272 R0
WINDOW 123 0 0 Left 2
WINDOW 39 0 0 Left 2
WINDOW 3 -64 -225 VRight 2
SYMATTR Value PULSE(5 0 0 60ps 60ps 40ns 80ns)
SYMATTR InstName V2
SYMBOL NAND3P -4816 -592 M0
SYMATTR InstName X1
SYMBOL NAND3P -4800 -80 M0
SYMATTR InstName X2
SYMBOL voltage -4160 -672 R0
WINDOW 123 0 0 Left 2
WINDOW 39 0 0 Left 2
WINDOW 3 -66 -145 VRight 2
SYMATTR Value PULSE(5 0 0 60ps 60ps 100ns 200ns)
SYMATTR InstName V3
SYMBOL voltage -4320 -672 R0
WINDOW 123 0 0 Left 2
WINDOW 39 0 0 Left 2
WINDOW 3 -66 -145 VRight 2
SYMATTR Value PULSE(5 0 0 60ps 60ps 200ns 400ns)
SYMATTR InstName V5
TEXT -4360 -320 Left 2 !.lib "C5_models.txt"
TEXT -4400 -152 Left 2 ;S1=porta  OR       de tres entradas\nS2=porta NOR     de três entradas\nS3=porta AND     de tres entradas\nS4=porta NAND  de três entradas\nS5=porta  OR       de duas entradas\nS6=porta NOR     de duas entradas\nS7=porta AND     de duas entradas\nS8=porta NAND  de duas entradas
TEXT -4352 -192 Left 2 !.tran 0 400ns 0 0.01ns
TEXT -4360 -272 Left 2 !.ic V(Q)=0\n.ic V(Qb)=5
