Version 4
SHEET 1 880 1284
WIRE -5568 -960 -6432 -960
WIRE -4544 -960 -5440 -960
WIRE -6352 -752 -6352 -848
WIRE -5312 -736 -5312 -832
WIRE -6432 -720 -6432 -960
WIRE -6384 -720 -6432 -720
WIRE -6080 -704 -6080 -736
WIRE -5440 -704 -5440 -960
WIRE -5344 -704 -5440 -704
WIRE -5792 -688 -5792 -736
WIRE -5040 -688 -5040 -720
WIRE -6752 -672 -6848 -672
WIRE -6384 -672 -6752 -672
WIRE -6144 -672 -6224 -672
WIRE -5856 -672 -5984 -672
WIRE -4752 -672 -4752 -720
WIRE -5856 -656 -5856 -672
WIRE -5824 -656 -5856 -656
WIRE -5344 -656 -5488 -656
WIRE -5104 -656 -5184 -656
WIRE -4816 -656 -4944 -656
WIRE -4816 -640 -4816 -656
WIRE -4784 -640 -4816 -640
WIRE -6384 -624 -6496 -624
WIRE -5616 -608 -5664 -608
WIRE -5520 -608 -5616 -608
WIRE -5488 -608 -5488 -656
WIRE -5488 -608 -5520 -608
WIRE -5344 -608 -5456 -608
WIRE -4576 -592 -4624 -592
WIRE -4512 -592 -4576 -592
WIRE -4464 -592 -4512 -592
WIRE -6000 -576 -6000 -592
WIRE -4176 -576 -4176 -640
WIRE -5824 -560 -5856 -560
WIRE -4960 -560 -4960 -576
WIRE -6064 -544 -6144 -544
WIRE -5856 -544 -5856 -560
WIRE -5856 -544 -5904 -544
WIRE -4784 -544 -4816 -544
WIRE -5024 -528 -5104 -528
WIRE -4816 -528 -4816 -544
WIRE -4816 -528 -4864 -528
WIRE -5616 -448 -5616 -608
WIRE -4576 -432 -4576 -592
WIRE -4176 -432 -4176 -496
WIRE -6944 -416 -6944 -512
WIRE -6544 -416 -6944 -416
WIRE -6496 -416 -6496 -624
WIRE -6496 -416 -6544 -416
WIRE -5456 -400 -5456 -608
WIRE -5456 -400 -5488 -400
WIRE -6144 -384 -6144 -544
WIRE -5104 -368 -5104 -528
WIRE -6944 -320 -6944 -416
WIRE -5616 -304 -6144 -384
WIRE -6144 -288 -5616 -448
WIRE -4576 -288 -5104 -368
WIRE -5104 -272 -4576 -432
WIRE -4240 -256 -4240 -368
WIRE -6000 -208 -6000 -256
WIRE -5776 -192 -5776 -240
WIRE -4960 -192 -4960 -240
WIRE -6944 -176 -6944 -240
WIRE -6144 -176 -6144 -288
WIRE -6064 -176 -6144 -176
WIRE -5856 -176 -5904 -176
WIRE -4736 -176 -4736 -224
WIRE -5856 -160 -5856 -176
WIRE -5808 -160 -5856 -160
WIRE -5104 -160 -5104 -272
WIRE -5024 -160 -5104 -160
WIRE -4816 -160 -4864 -160
WIRE -4816 -144 -4816 -160
WIRE -4768 -144 -4816 -144
WIRE -6368 -128 -6368 -192
WIRE -5616 -112 -5616 -304
WIRE -5616 -112 -5648 -112
WIRE -5568 -112 -5568 -960
WIRE -5568 -112 -5616 -112
WIRE -5488 -112 -5488 -400
WIRE -5488 -112 -5568 -112
WIRE -5328 -112 -5328 -176
WIRE -4240 -112 -4240 -176
WIRE -6496 -96 -6496 -416
WIRE -6400 -96 -6496 -96
WIRE -4576 -96 -4576 -288
WIRE -4576 -96 -4608 -96
WIRE -4544 -96 -4544 -960
WIRE -4544 -96 -4576 -96
WIRE -4448 -96 -4544 -96
WIRE -6144 -80 -6144 -112
WIRE -5456 -80 -5456 -400
WIRE -5360 -80 -5456 -80
WIRE -5808 -64 -5856 -64
WIRE -5104 -64 -5104 -96
WIRE -6592 -48 -6880 -48
WIRE -6400 -48 -6592 -48
WIRE -6208 -48 -6240 -48
WIRE -5856 -48 -5856 -64
WIRE -5856 -48 -6048 -48
WIRE -4768 -48 -4816 -48
WIRE -5488 -32 -5488 -112
WIRE -5360 -32 -5488 -32
WIRE -5168 -32 -5200 -32
WIRE -4816 -32 -4816 -48
WIRE -4816 -32 -5008 -32
WIRE -6400 0 -6432 0
WIRE -5360 16 -5440 16
WIRE -6432 144 -6432 0
WIRE -5520 144 -5520 -608
WIRE -5520 144 -6432 144
WIRE -5440 144 -5440 16
WIRE -4512 144 -4512 -592
WIRE -4512 144 -5440 144
WIRE -5776 256 -5776 224
WIRE -6752 272 -6752 -672
WIRE -6592 272 -6592 -48
WIRE -6544 288 -6544 -416
WIRE -5840 288 -6544 288
WIRE -5488 288 -5488 -32
WIRE -5488 288 -5680 288
WIRE -6752 416 -6752 352
WIRE -6592 416 -6592 352
WIRE 0 0 0 0
FLAG -6592 416 0
FLAG -6752 416 0
FLAG -4448 -96 Qb
FLAG -4240 -112 0
FLAG -4464 -592 Q
FLAG -4240 -368 Vdd
FLAG -4736 -224 Vdd
FLAG -5104 -96 Vdd
FLAG -5312 -832 Vdd
FLAG -5328 -176 Vdd
FLAG -4176 -432 0
FLAG -4176 -640 CLOCK
FLAG -4960 -240 Vdd
FLAG -5040 -720 Vdd
FLAG -4752 -720 Vdd
FLAG -4960 -576 Vdd
FLAG -6144 -112 Vdd
FLAG -6352 -848 Vdd
FLAG -6368 -192 Vdd
FLAG -6000 -256 Vdd
FLAG -6080 -736 Vdd
FLAG -6000 -592 Vdd
FLAG -5776 224 Vdd
FLAG -6944 -176 0
FLAG -6944 -512 CK
FLAG -6848 -672 J
FLAG -6880 -48 K
FLAG -5776 -240 Vdd
FLAG -5792 -736 Vdd
SYMBOL voltage -6592 256 R0
WINDOW 123 0 0 Left 2
WINDOW 39 0 0 Left 2
WINDOW 3 -66 -145 VRight 2
SYMATTR Value PULSE(5 0 0 60ps 60ps 100ns 200ns)
SYMATTR InstName V4
SYMBOL voltage -6752 256 R0
WINDOW 123 0 0 Left 2
WINDOW 39 0 0 Left 2
WINDOW 3 -66 -145 VRight 2
SYMATTR Value PULSE(5 0 0 60ps 60ps 200ns 400ns)
SYMATTR InstName V1
SYMBOL voltage -4240 -272 R0
WINDOW 123 0 0 Left 2
WINDOW 39 0 0 Left 2
WINDOW 3 -58 40 VRight 2
SYMATTR Value 5V
SYMATTR InstName Vdd
SYMBOL voltage -4176 -592 M0
WINDOW 123 0 0 Left 2
WINDOW 39 0 0 Left 2
WINDOW 3 -66 -145 VRight 2
SYMATTR Value PULSE(5 0 0 60ps 60ps 40ns 80ns)
SYMATTR InstName V2
SYMBOL INVERTER -5088 -640 R0
SYMATTR InstName X5
SYMBOL INVERTER -5152 -16 R0
SYMATTR InstName X6
SYMBOL INVERTER -5008 -144 R0
SYMATTR InstName X7
SYMBOL INVERTER -5008 -512 R0
SYMATTR InstName X8
SYMBOL INVERTER -6128 -656 R0
SYMATTR InstName X13
SYMBOL INVERTER -6192 -32 R0
SYMATTR InstName X14
SYMBOL INVERTER -6048 -160 R0
SYMATTR InstName X15
SYMBOL INVERTER -6048 -528 R0
SYMATTR InstName X16
SYMBOL INVERTER -5824 304 R0
SYMATTR InstName X17
SYMBOL voltage -6944 -336 R0
WINDOW 123 0 0 Left 2
WINDOW 39 0 0 Left 2
WINDOW 3 -64 -225 VRight 2
SYMATTR Value PULSE(5 0 0 60ps 60ps 40ns 80ns)
SYMATTR InstName V3
SYMBOL NAND3P -5216 -656 M0
SYMATTR InstName X2
SYMBOL NAND3P -5232 -32 M0
SYMATTR InstName X3
SYMBOL NAND3P -6256 -672 M0
SYMATTR InstName X9
SYMBOL NAND3P -6272 -48 M0
SYMATTR InstName X10
SYMBOL NAND2P -4640 -96 M0
SYMATTR InstName X1
SYMBOL NAND2P -4656 -592 M0
SYMATTR InstName X4
SYMBOL NAND2P -5680 -112 M0
SYMATTR InstName X11
SYMBOL NAND2P -5696 -608 M0
SYMATTR InstName X12
TEXT -4360 16 Left 2 !.lib "C5_models.txt"
TEXT -4400 152 Left 2 !.tran 0 400ns 0 0.01ns
TEXT -4472 -368 Left 2 !.ic V(Q)=0\n.ic V(Qb)=5
