Version 4
SHEET 1 880 1284
WIRE -3664 -720 -3664 -832
WIRE -4000 -704 -4000 -896
WIRE -3840 -704 -3840 -896
WIRE -5088 -688 -5088 -752
WIRE -4816 -688 -4816 -784
WIRE -5152 -656 -5264 -656
WIRE -4848 -656 -4992 -656
WIRE -4576 -608 -4688 -608
WIRE -4528 -608 -4576 -608
WIRE -3664 -576 -3664 -640
WIRE -4848 -560 -4912 -560
WIRE -4000 -560 -4000 -624
WIRE -3840 -560 -3840 -624
WIRE -4576 -432 -4576 -608
WIRE -4912 -384 -4912 -560
WIRE -4912 -288 -4576 -432
WIRE -4576 -288 -4912 -384
WIRE -4800 -160 -4800 -224
WIRE -4912 -128 -4912 -288
WIRE -4832 -128 -4912 -128
WIRE -4576 -80 -4576 -288
WIRE -4576 -80 -4672 -80
WIRE -4512 -80 -4576 -80
WIRE -5136 -64 -5136 -128
WIRE -5200 -32 -5264 -32
WIRE -4832 -32 -5040 -32
FLAG -3840 -560 0
FLAG -3840 -896 R
FLAG -4000 -560 0
FLAG -4000 -896 S
FLAG -4512 -80 Qb
FLAG -3664 -576 0
FLAG -4528 -608 Q
FLAG -3664 -832 Vdd
FLAG -4800 -224 Vdd
FLAG -4816 -784 Vdd
FLAG -5264 -656 S
FLAG -5264 -32 R
FLAG -5088 -752 Vdd
FLAG -5136 -128 Vdd
SYMBOL voltage -3840 -720 R0
WINDOW 123 0 0 Left 2
WINDOW 39 0 0 Left 2
WINDOW 3 -66 -145 VRight 2
SYMATTR Value PULSE(5 0 0 60ps 60ps 100ns 200ns)
SYMATTR InstName V4
SYMBOL NAND2P -4704 -80 M0
SYMATTR InstName X5
SYMBOL voltage -4000 -720 R0
WINDOW 123 0 0 Left 2
WINDOW 39 0 0 Left 2
WINDOW 3 -66 -145 VRight 2
SYMATTR Value PULSE(5 0 0 60ps 60ps 200ns 400ns)
SYMATTR InstName V1
SYMBOL voltage -3664 -736 R0
WINDOW 123 0 0 Left 2
WINDOW 39 0 0 Left 2
WINDOW 3 -58 40 VRight 2
SYMATTR Value 5V
SYMATTR InstName Vdd
SYMBOL NAND2P -4720 -608 M0
SYMATTR InstName X1
SYMBOL INVERTER -5136 -640 R0
SYMATTR InstName X2
SYMBOL INVERTER -5184 -16 R0
SYMATTR InstName X3
TEXT -4704 -744 Left 2 !.lib "C5_models.txt"
TEXT -4120 -144 Left 2 ;S1=porta  OR       de tres entradas\nS2=porta NOR     de três entradas\nS3=porta AND     de tres entradas\nS4=porta NAND  de três entradas\nS5=porta  OR       de duas entradas\nS6=porta NOR     de duas entradas\nS7=porta AND     de duas entradas\nS8=porta NAND  de duas entradas
TEXT -4896 104 Left 2 !.tran 0 400ns 0 0.01ns
TEXT -4392 -360 Left 2 !.ic V(Q)=0\n.ic V(Qb)=5
